
 OpenBabel11192109213D

 19 19  0  0  0  0  0  0  0  0999 V2000
    1.3370   -0.2204   -0.1121 C   0  0  0  0  0  0  0  0  0  0  0  0
    1.1292   -1.5986   -0.0670 C   0  0  0  0  0  0  0  0  0  0  0  0
   -0.1664   -2.1086    0.0147 C   0  0  0  0  0  0  0  0  0  0  0  0
   -1.2651   -1.2431    0.0532 C   0  0  0  0  0  0  0  0  0  0  0  0
   -1.0467    0.1416    0.0048 C   0  0  0  0  0  0  0  0  0  0  0  0
    0.2520    0.6656   -0.0757 C   0  0  0  0  0  0  0  0  0  0  0  0
    0.4805    2.1508   -0.1522 C   0  0  0  0  0  0  0  0  0  0  0  0
    2.3508    0.1714   -0.1643 H   0  0  0  0  0  0  0  0  0  0  0  0
    1.9799   -2.2741   -0.0896 H   0  0  0  0  0  0  0  0  0  0  0  0
   -0.3105   -3.1852    0.0538 H   0  0  0  0  0  0  0  0  0  0  0  0
   -2.6637   -1.7753    0.1519 C   0  0  0  0  0  0  0  0  0  0  0  0
   -1.8982    0.8187    0.0381 H   0  0  0  0  0  0  0  0  0  0  0  0
    0.9411    2.4101   -1.1109 H   0  0  0  0  0  0  0  0  0  0  0  0
    1.3402    2.5732    0.8970 O   0  0  0  0  0  0  0  0  0  0  0  0
   -0.4577    2.7073   -0.0639 H   0  0  0  0  0  0  0  0  0  0  0  0
    2.0875    2.4718    0.7080 *   0  0  0  0  0  0  0  0  0  0  0  0
   -2.6765   -2.8698    0.1794 H   0  0  0  0  0  0  0  0  0  0  0  0
   -3.2514   -1.4544   -0.7142 H   0  0  0  0  0  0  0  0  0  0  0  0
   -3.1417   -1.4111    1.0670 H   0  0  0  0  0  0  0  0  0  0  0  0
  1  2  2  0  0  0  0
  1  8  1  0  0  0  0
  2  3  1  0  0  0  0
  2  9  1  0  0  0  0
  3  4  2  0  0  0  0
  3 10  1  0  0  0  0
  4  5  1  0  0  0  0
  4 11  1  0  0  0  0
  5  6  2  0  0  0  0
  5 12  1  0  0  0  0
  6  1  1  0  0  0  0
  6  7  1  0  0  0  0
  7 13  1  0  0  0  0
  7 14  1  0  0  0  0
  7 15  1  0  0  0  0
 11 17  1  0  0  0  0
 11 18  1  0  0  0  0
 11 19  1  0  0  0  0
 14 16  1  0  0  0  0
M  END
