
 OpenBabel11192111043D

 13 13  0  0  0  0  0  0  0  0999 V2000
   -1.0068    0.3344    0.1684 C   0  0  0  0  0  0  0  0  0  0  0  0
    0.0507    1.3985    0.0188 C   0  0  0  0  0  0  0  0  0  0  0  0
    0.4347   -0.0580   -0.0090 C   0  0  0  0  0  0  0  0  0  0  0  0
    0.1267    2.2269   -1.2188 C   0  0  0  0  0  0  0  0  0  0  0  0
    0.3210    1.9719    0.8991 H   0  0  0  0  0  0  0  0  0  0  0  0
    0.7269   -0.5039   -0.9531 H   0  0  0  0  0  0  0  0  0  0  0  0
    0.9611   -0.4592    0.8501 H   0  0  0  0  0  0  0  0  0  0  0  0
   -1.4526    0.1984    1.1476 H   0  0  0  0  0  0  0  0  0  0  0  0
   -1.6848    0.1481   -0.6567 H   0  0  0  0  0  0  0  0  0  0  0  0
   -0.0950    1.6497   -2.1226 H   0  0  0  0  0  0  0  0  0  0  0  0
    1.1256    2.6602   -1.3253 H   0  0  0  0  0  0  0  0  0  0  0  0
   -0.8110    3.2876   -1.1195 O   0  0  0  0  0  0  0  0  0  0  0  0
   -1.6781    2.8789   -0.9579 R   0  0  0  0  0  0  0  0  0  0  0  0
  1  8  1  0  0  0  0
  2  1  1  0  0  0  0
  2  5  1  0  0  0  0
  3  2  1  0  0  0  0
  3  1  1  0  0  0  0
  3  7  1  0  0  0  0
  4  2  1  0  0  0  0
  4 10  1  0  0  0  0
  4 11  1  0  0  0  0
  4 12  1  0  0  0  0
  6  3  1  0  0  0  0
  9  1  1  0  0  0  0
 12 13  1  0  0  0  0
M  END
