
 OpenBabel11192109233D

 16 16  0  0  0  0  0  0  0  0999 V2000
    1.3266   -0.2269   -0.0649 C   0  0  0  0  0  0  0  0  0  0  0  0
    1.1197   -1.6086   -0.0237 C   0  0  0  0  0  0  0  0  0  0  0  0
   -0.1774   -2.1145    0.0171 C   0  0  0  0  0  0  0  0  0  0  0  0
   -1.2535   -1.2350    0.0146 C   0  0  0  0  0  0  0  0  0  0  0  0
   -1.0581    0.1424   -0.0268 C   0  0  0  0  0  0  0  0  0  0  0  0
    0.2418    0.6653   -0.0568 C   0  0  0  0  0  0  0  0  0  0  0  0
    0.4627    2.1522   -0.1411 C   0  0  0  0  0  0  0  0  0  0  0  0
    2.3433    0.1630   -0.0929 H   0  0  0  0  0  0  0  0  0  0  0  0
    1.9710   -2.2837   -0.0215 H   0  0  0  0  0  0  0  0  0  0  0  0
   -0.3561   -3.1838    0.0507 H   0  0  0  0  0  0  0  0  0  0  0  0
   -2.5015   -1.7218    0.0479 F   0  0  0  0  0  0  0  0  0  0  0  0
   -1.9248    0.7961   -0.0304 H   0  0  0  0  0  0  0  0  0  0  0  0
    0.7025    2.4350   -1.1708 H   0  0  0  0  0  0  0  0  0  0  0  0
    1.5347    2.5504    0.7024 O   0  0  0  0  0  0  0  0  0  0  0  0
   -0.4286    2.7033    0.1742 H   0  0  0  0  0  0  0  0  0  0  0  0
    2.0875    2.4718    0.7080 *   0  0  0  0  0  0  0  0  0  0  0  0
  1  2  2  0  0  0  0
  1  8  1  0  0  0  0
  2  3  1  0  0  0  0
  2  9  1  0  0  0  0
  3  4  2  0  0  0  0
  3 10  1  0  0  0  0
  4  5  1  0  0  0  0
  4 11  1  0  0  0  0
  5  6  2  0  0  0  0
  5 12  1  0  0  0  0
  6  1  1  0  0  0  0
  6  7  1  0  0  0  0
  7 13  1  0  0  0  0
  7 14  1  0  0  0  0
  7 15  1  0  0  0  0
 14 16  1  0  0  0  0
M  END
