Benzyl Alcohol
 OpenBabel09102119203D

 16 16  0  0  0  0  0  0  0  0999 V2000
    1.1798   -0.2360   -0.1168 C   0  0  0  0  0  0  0  0  0  0  0  0
    0.9411   -1.6129   -0.0634 C   0  0  0  0  0  0  0  0  0  0  0  0
   -0.3675   -2.0939    0.0309 C   0  0  0  0  0  0  0  0  0  0  0  0
   -1.4398   -1.1987    0.0712 C   0  0  0  0  0  0  0  0  0  0  0  0
   -1.2058    0.1792    0.0179 C   0  0  0  0  0  0  0  0  0  0  0  0
    0.1075    0.6713   -0.0754 C   0  0  0  0  0  0  0  0  0  0  0  0
    0.3682    2.1518   -0.1353 C   0  0  0  0  0  0  0  0  0  0  0  0
    2.1991    0.1221   -0.1914 H   0  0  0  0  0  0  0  0  0  0  0  0
    1.7709   -2.3071   -0.0955 H   0  0  0  0  0  0  0  0  0  0  0  0
   -0.5506   -3.1598    0.0721 H   0  0  0  0  0  0  0  0  0  0  0  0
   -2.4530   -1.5725    0.1436 H   0  0  0  0  0  0  0  0  0  0  0  0
   -2.0482    0.8589    0.0499 H   0  0  0  0  0  0  0  0  0  0  0  0
    0.8798    2.4105   -1.0909 H   0  0  0  0  0  0  0  0  0  0  0  0
    1.1333    2.5561    0.9686 O   0  0  0  0  0  0  0  0  0  0  0  0
   -0.5822    2.7269   -0.1236 H   0  0  0  0  0  0  0  0  0  0  0  0
    2.0875    2.4718    0.7080 R   0  0  0  0  0  0  0  0  0  0  0  0
  1  2  2  0  0  0  0
  1  8  1  0  0  0  0
  2  3  1  0  0  0  0
  2  9  1  0  0  0  0
  3  4  2  0  0  0  0
  3 10  1  0  0  0  0
  4  5  1  0  0  0  0
  4 11  1  0  0  0  0
  5  6  2  0  0  0  0
  5 12  1  0  0  0  0
  6  1  1  0  0  0  0
  6  7  1  0  0  0  0
  7 13  1  0  0  0  0
  7 14  1  0  0  0  0
  7 15  1  0  0  0  0
 14 16  1  0  0  0  0
M  END
