
 OpenBabel11192111013D

 12 11  0  0  0  0  0  0  0  0999 V2000
    1.9490    0.0458    1.8081 F   0  0  0  0  0  0  0  0  0  0  0  0
    1.4120    0.0120    0.5681 C   0  0  0  0  0  0  0  0  0  0  0  0
    1.8987    1.0714   -0.1135 F   0  0  0  0  0  0  0  0  0  0  0  0
    1.8582   -1.1089   -0.0388 F   0  0  0  0  0  0  0  0  0  0  0  0
   -0.0841    0.0406    0.6373 C   0  0  0  0  0  0  0  0  0  0  0  0
   -0.4445   -0.7931    1.2876 H   0  0  0  0  0  0  0  0  0  0  0  0
   -0.4520    0.8960    1.2115 H   0  0  0  0  0  0  0  0  0  0  0  0
   -0.7020   -0.0328   -0.7344 C   0  0  0  0  0  0  0  0  0  0  0  0
   -0.3319    0.7568   -1.3944 H   0  0  0  0  0  0  0  0  0  0  0  0
   -0.5237   -1.0066   -1.1987 H   0  0  0  0  0  0  0  0  0  0  0  0
   -2.1067    0.1313   -0.5952 O   0  0  0  0  0  0  0  0  0  0  0  0
   -2.4729   -0.0122   -1.4374 *   0  0  0  0  0  0  0  0  0  0  0  0
  1  2  1  0  0  0  0
  2  3  1  0  0  0  0
  2  4  1  0  0  0  0
  2  5  1  0  0  0  0
  5  6  1  0  0  0  0
  5  7  1  0  0  0  0
  5  8  1  0  0  0  0
  8  9  1  0  0  0  0
  8 10  1  0  0  0  0
  8 11  1  0  0  0  0
 11 12  1  0  0  0  0
M  END
